data_image0
_chemical_formula_structural       Mg2F4Mg2F4Mg2F4Mg2F4Mg2F4Mg2F4Mg2F4Mg2F4Mg2F4Mg2F4Mg2F4Mg2F4Mg2F4Mg2F4Mg2F4Mg2F4Mg2F4Mg2F4Mg2F4Mg2F4Mg2F4Mg2F4Mg2F4Mg2F4Mg2F4Mg2F4Mg2F4Mg2F4Mg2F4Mg2F4Mg2F4Mg2F4
_chemical_formula_sum              "Mg64 F128"
_cell_length_a       9.242
_cell_length_b       4.621
_cell_length_c       48.8
_cell_angle_alpha    90
_cell_angle_beta     90
_cell_angle_gamma    90

_space_group_name_H-M_alt    "P 1"
_space_group_IT_number       1

loop_
  _space_group_symop_operation_xyz
  'x, y, z'

loop_
  _atom_site_type_symbol
  _atom_site_label
  _atom_site_symmetry_multiplicity
  _atom_site_fract_x
  _atom_site_fract_y
  _atom_site_fract_z
  _atom_site_occupancy
  Mg  Mg1       1.0  0.25000  0.50000  0.03125  1.0000
  Mg  Mg2       1.0  0.00000  0.00000  0.00000  1.0000
  F   F1        1.0  0.09500  0.81000  0.03125  1.0000
  F   F2        1.0  0.40500  0.19000  0.03125  1.0000
  F   F3        1.0  0.15500  0.31000  0.00000  1.0000
  F   F4        1.0  0.34500  0.69000  0.00000  1.0000
  Mg  Mg3       1.0  0.25000  0.50000  0.09375  1.0000
  Mg  Mg4       1.0  0.00000  0.00000  0.06250  1.0000
  F   F5        1.0  0.09500  0.81000  0.09375  1.0000
  F   F6        1.0  0.40500  0.19000  0.09375  1.0000
  F   F7        1.0  0.15500  0.31000  0.06250  1.0000
  F   F8        1.0  0.34500  0.69000  0.06250  1.0000
  Mg  Mg5       1.0  0.25000  0.50000  0.15625  1.0000
  Mg  Mg6       1.0  0.00000  0.00000  0.12500  1.0000
  F   F9        1.0  0.09500  0.81000  0.15625  1.0000
  F   F10       1.0  0.40500  0.19000  0.15625  1.0000
  F   F11       1.0  0.15500  0.31000  0.12500  1.0000
  F   F12       1.0  0.34500  0.69000  0.12500  1.0000
  Mg  Mg7       1.0  0.25000  0.50000  0.21875  1.0000
  Mg  Mg8       1.0  0.00000  0.00000  0.18750  1.0000
  F   F13       1.0  0.09500  0.81000  0.21875  1.0000
  F   F14       1.0  0.40500  0.19000  0.21875  1.0000
  F   F15       1.0  0.15500  0.31000  0.18750  1.0000
  F   F16       1.0  0.34500  0.69000  0.18750  1.0000
  Mg  Mg9       1.0  0.25000  0.50000  0.28125  1.0000
  Mg  Mg10      1.0  0.00000  0.00000  0.25000  1.0000
  F   F17       1.0  0.09500  0.81000  0.28125  1.0000
  F   F18       1.0  0.40500  0.19000  0.28125  1.0000
  F   F19       1.0  0.15500  0.31000  0.25000  1.0000
  F   F20       1.0  0.34500  0.69000  0.25000  1.0000
  Mg  Mg11      1.0  0.25000  0.50000  0.34375  1.0000
  Mg  Mg12      1.0  0.00000  0.00000  0.31250  1.0000
  F   F21       1.0  0.09500  0.81000  0.34375  1.0000
  F   F22       1.0  0.40500  0.19000  0.34375  1.0000
  F   F23       1.0  0.15500  0.31000  0.31250  1.0000
  F   F24       1.0  0.34500  0.69000  0.31250  1.0000
  Mg  Mg13      1.0  0.25000  0.50000  0.40625  1.0000
  Mg  Mg14      1.0  0.00000  0.00000  0.37500  1.0000
  F   F25       1.0  0.09500  0.81000  0.40625  1.0000
  F   F26       1.0  0.40500  0.19000  0.40625  1.0000
  F   F27       1.0  0.15500  0.31000  0.37500  1.0000
  F   F28       1.0  0.34500  0.69000  0.37500  1.0000
  Mg  Mg15      1.0  0.25000  0.50000  0.46875  1.0000
  Mg  Mg16      1.0  0.00000  0.00000  0.43750  1.0000
  F   F29       1.0  0.09500  0.81000  0.46875  1.0000
  F   F30       1.0  0.40500  0.19000  0.46875  1.0000
  F   F31       1.0  0.15500  0.31000  0.43750  1.0000
  F   F32       1.0  0.34500  0.69000  0.43750  1.0000
  Mg  Mg17      1.0  0.25000  0.50000  0.53125  1.0000
  Mg  Mg18      1.0  0.00000  0.00000  0.50000  1.0000
  F   F33       1.0  0.09500  0.81000  0.53125  1.0000
  F   F34       1.0  0.40500  0.19000  0.53125  1.0000
  F   F35       1.0  0.15500  0.31000  0.50000  1.0000
  F   F36       1.0  0.34500  0.69000  0.50000  1.0000
  Mg  Mg19      1.0  0.25000  0.50000  0.59375  1.0000
  Mg  Mg20      1.0  0.00000  0.00000  0.56250  1.0000
  F   F37       1.0  0.09500  0.81000  0.59375  1.0000
  F   F38       1.0  0.40500  0.19000  0.59375  1.0000
  F   F39       1.0  0.15500  0.31000  0.56250  1.0000
  F   F40       1.0  0.34500  0.69000  0.56250  1.0000
  Mg  Mg21      1.0  0.25000  0.50000  0.65625  1.0000
  Mg  Mg22      1.0  0.00000  0.00000  0.62500  1.0000
  F   F41       1.0  0.09500  0.81000  0.65625  1.0000
  F   F42       1.0  0.40500  0.19000  0.65625  1.0000
  F   F43       1.0  0.15500  0.31000  0.62500  1.0000
  F   F44       1.0  0.34500  0.69000  0.62500  1.0000
  Mg  Mg23      1.0  0.25000  0.50000  0.71875  1.0000
  Mg  Mg24      1.0  0.00000  0.00000  0.68750  1.0000
  F   F45       1.0  0.09500  0.81000  0.71875  1.0000
  F   F46       1.0  0.40500  0.19000  0.71875  1.0000
  F   F47       1.0  0.15500  0.31000  0.68750  1.0000
  F   F48       1.0  0.34500  0.69000  0.68750  1.0000
  Mg  Mg25      1.0  0.25000  0.50000  0.78125  1.0000
  Mg  Mg26      1.0  0.00000  0.00000  0.75000  1.0000
  F   F49       1.0  0.09500  0.81000  0.78125  1.0000
  F   F50       1.0  0.40500  0.19000  0.78125  1.0000
  F   F51       1.0  0.15500  0.31000  0.75000  1.0000
  F   F52       1.0  0.34500  0.69000  0.75000  1.0000
  Mg  Mg27      1.0  0.25000  0.50000  0.84375  1.0000
  Mg  Mg28      1.0  0.00000  0.00000  0.81250  1.0000
  F   F53       1.0  0.09500  0.81000  0.84375  1.0000
  F   F54       1.0  0.40500  0.19000  0.84375  1.0000
  F   F55       1.0  0.15500  0.31000  0.81250  1.0000
  F   F56       1.0  0.34500  0.69000  0.81250  1.0000
  Mg  Mg29      1.0  0.25000  0.50000  0.90625  1.0000
  Mg  Mg30      1.0  0.00000  0.00000  0.87500  1.0000
  F   F57       1.0  0.09500  0.81000  0.90625  1.0000
  F   F58       1.0  0.40500  0.19000  0.90625  1.0000
  F   F59       1.0  0.15500  0.31000  0.87500  1.0000
  F   F60       1.0  0.34500  0.69000  0.87500  1.0000
  Mg  Mg31      1.0  0.25000  0.50000  0.96875  1.0000
  Mg  Mg32      1.0  0.00000  0.00000  0.93750  1.0000
  F   F61       1.0  0.09500  0.81000  0.96875  1.0000
  F   F62       1.0  0.40500  0.19000  0.96875  1.0000
  F   F63       1.0  0.15500  0.31000  0.93750  1.0000
  F   F64       1.0  0.34500  0.69000  0.93750  1.0000
  Mg  Mg33      1.0  0.75000  0.50000  0.03125  1.0000
  Mg  Mg34      1.0  0.50000  0.00000  0.00000  1.0000
  F   F65       1.0  0.59500  0.81000  0.03125  1.0000
  F   F66       1.0  0.90500  0.19000  0.03125  1.0000
  F   F67       1.0  0.65500  0.31000  0.00000  1.0000
  F   F68       1.0  0.84500  0.69000  0.00000  1.0000
  Mg  Mg35      1.0  0.75000  0.50000  0.09375  1.0000
  Mg  Mg36      1.0  0.50000  0.00000  0.06250  1.0000
  F   F69       1.0  0.59500  0.81000  0.09375  1.0000
  F   F70       1.0  0.90500  0.19000  0.09375  1.0000
  F   F71       1.0  0.65500  0.31000  0.06250  1.0000
  F   F72       1.0  0.84500  0.69000  0.06250  1.0000
  Mg  Mg37      1.0  0.75000  0.50000  0.15625  1.0000
  Mg  Mg38      1.0  0.50000  0.00000  0.12500  1.0000
  F   F73       1.0  0.59500  0.81000  0.15625  1.0000
  F   F74       1.0  0.90500  0.19000  0.15625  1.0000
  F   F75       1.0  0.65500  0.31000  0.12500  1.0000
  F   F76       1.0  0.84500  0.69000  0.12500  1.0000
  Mg  Mg39      1.0  0.75000  0.50000  0.21875  1.0000
  Mg  Mg40      1.0  0.50000  0.00000  0.18750  1.0000
  F   F77       1.0  0.59500  0.81000  0.21875  1.0000
  F   F78       1.0  0.90500  0.19000  0.21875  1.0000
  F   F79       1.0  0.65500  0.31000  0.18750  1.0000
  F   F80       1.0  0.84500  0.69000  0.18750  1.0000
  Mg  Mg41      1.0  0.75000  0.50000  0.28125  1.0000
  Mg  Mg42      1.0  0.50000  0.00000  0.25000  1.0000
  F   F81       1.0  0.59500  0.81000  0.28125  1.0000
  F   F82       1.0  0.90500  0.19000  0.28125  1.0000
  F   F83       1.0  0.65500  0.31000  0.25000  1.0000
  F   F84       1.0  0.84500  0.69000  0.25000  1.0000
  Mg  Mg43      1.0  0.75000  0.50000  0.34375  1.0000
  Mg  Mg44      1.0  0.50000  0.00000  0.31250  1.0000
  F   F85       1.0  0.59500  0.81000  0.34375  1.0000
  F   F86       1.0  0.90500  0.19000  0.34375  1.0000
  F   F87       1.0  0.65500  0.31000  0.31250  1.0000
  F   F88       1.0  0.84500  0.69000  0.31250  1.0000
  Mg  Mg45      1.0  0.75000  0.50000  0.40625  1.0000
  Mg  Mg46      1.0  0.50000  0.00000  0.37500  1.0000
  F   F89       1.0  0.59500  0.81000  0.40625  1.0000
  F   F90       1.0  0.90500  0.19000  0.40625  1.0000
  F   F91       1.0  0.65500  0.31000  0.37500  1.0000
  F   F92       1.0  0.84500  0.69000  0.37500  1.0000
  Mg  Mg47      1.0  0.75000  0.50000  0.46875  1.0000
  Mg  Mg48      1.0  0.50000  0.00000  0.43750  1.0000
  F   F93       1.0  0.59500  0.81000  0.46875  1.0000
  F   F94       1.0  0.90500  0.19000  0.46875  1.0000
  F   F95       1.0  0.65500  0.31000  0.43750  1.0000
  F   F96       1.0  0.84500  0.69000  0.43750  1.0000
  Mg  Mg49      1.0  0.75000  0.50000  0.53125  1.0000
  Mg  Mg50      1.0  0.50000  0.00000  0.50000  1.0000
  F   F97       1.0  0.59500  0.81000  0.53125  1.0000
  F   F98       1.0  0.90500  0.19000  0.53125  1.0000
  F   F99       1.0  0.65500  0.31000  0.50000  1.0000
  F   F100      1.0  0.84500  0.69000  0.50000  1.0000
  Mg  Mg51      1.0  0.75000  0.50000  0.59375  1.0000
  Mg  Mg52      1.0  0.50000  0.00000  0.56250  1.0000
  F   F101      1.0  0.59500  0.81000  0.59375  1.0000
  F   F102      1.0  0.90500  0.19000  0.59375  1.0000
  F   F103      1.0  0.65500  0.31000  0.56250  1.0000
  F   F104      1.0  0.84500  0.69000  0.56250  1.0000
  Mg  Mg53      1.0  0.75000  0.50000  0.65625  1.0000
  Mg  Mg54      1.0  0.50000  0.00000  0.62500  1.0000
  F   F105      1.0  0.59500  0.81000  0.65625  1.0000
  F   F106      1.0  0.90500  0.19000  0.65625  1.0000
  F   F107      1.0  0.65500  0.31000  0.62500  1.0000
  F   F108      1.0  0.84500  0.69000  0.62500  1.0000
  Mg  Mg55      1.0  0.75000  0.50000  0.71875  1.0000
  Mg  Mg56      1.0  0.50000  0.00000  0.68750  1.0000
  F   F109      1.0  0.59500  0.81000  0.71875  1.0000
  F   F110      1.0  0.90500  0.19000  0.71875  1.0000
  F   F111      1.0  0.65500  0.31000  0.68750  1.0000
  F   F112      1.0  0.84500  0.69000  0.68750  1.0000
  Mg  Mg57      1.0  0.75000  0.50000  0.78125  1.0000
  Mg  Mg58      1.0  0.50000  0.00000  0.75000  1.0000
  F   F113      1.0  0.59500  0.81000  0.78125  1.0000
  F   F114      1.0  0.90500  0.19000  0.78125  1.0000
  F   F115      1.0  0.65500  0.31000  0.75000  1.0000
  F   F116      1.0  0.84500  0.69000  0.75000  1.0000
  Mg  Mg59      1.0  0.75000  0.50000  0.84375  1.0000
  Mg  Mg60      1.0  0.50000  0.00000  0.81250  1.0000
  F   F117      1.0  0.59500  0.81000  0.84375  1.0000
  F   F118      1.0  0.90500  0.19000  0.84375  1.0000
  F   F119      1.0  0.65500  0.31000  0.81250  1.0000
  F   F120      1.0  0.84500  0.69000  0.81250  1.0000
  Mg  Mg61      1.0  0.75000  0.50000  0.90625  1.0000
  Mg  Mg62      1.0  0.50000  0.00000  0.87500  1.0000
  F   F121      1.0  0.59500  0.81000  0.90625  1.0000
  F   F122      1.0  0.90500  0.19000  0.90625  1.0000
  F   F123      1.0  0.65500  0.31000  0.87500  1.0000
  F   F124      1.0  0.84500  0.69000  0.87500  1.0000
  Mg  Mg63      1.0  0.75000  0.50000  0.96875  1.0000
  Mg  Mg64      1.0  0.50000  0.00000  0.93750  1.0000
  F   F125      1.0  0.59500  0.81000  0.96875  1.0000
  F   F126      1.0  0.90500  0.19000  0.96875  1.0000
  F   F127      1.0  0.65500  0.31000  0.93750  1.0000
  F   F128      1.0  0.84500  0.69000  0.93750  1.0000
