data_image0
_chemical_formula_structural       V2O4V2O4V2O4V2O4V2O4V2O4V2O4V2O4V2O4V2O4V2O4V2O4V2O4V2O4V2O4V2O4
_chemical_formula_sum              "V32 O64"
_cell_length_a       18.024
_cell_length_b       11.596
_cell_length_c       4.617
_cell_angle_alpha    90
_cell_angle_beta     91.79
_cell_angle_gamma    90

_space_group_name_H-M_alt    "P 1"
_space_group_IT_number       1

loop_
  _space_group_symop_operation_xyz
  'x, y, z'

loop_
  _atom_site_type_symbol
  _atom_site_label
  _atom_site_symmetry_multiplicity
  _atom_site_fract_x
  _atom_site_fract_y
  _atom_site_fract_z
  _atom_site_occupancy
  V   V1        1.0  0.00000  0.00000  0.00000  1.0000
  V   V2        1.0  0.12500  0.12500  0.50000  1.0000
  O   O1        1.0  0.05975  0.12500  0.79400  1.0000
  O   O2        1.0  0.19025  0.12500  0.20600  1.0000
  O   O3        1.0  0.06850  0.00000  0.29600  1.0000
  O   O4        1.0  0.18150  0.00000  0.70400  1.0000
  V   V3        1.0  0.00000  0.25000  0.00000  1.0000
  V   V4        1.0  0.12500  0.37500  0.50000  1.0000
  O   O5        1.0  0.05975  0.37500  0.79400  1.0000
  O   O6        1.0  0.19025  0.37500  0.20600  1.0000
  O   O7        1.0  0.06850  0.25000  0.29600  1.0000
  O   O8        1.0  0.18150  0.25000  0.70400  1.0000
  V   V5        1.0  0.00000  0.50000  0.00000  1.0000
  V   V6        1.0  0.12500  0.62500  0.50000  1.0000
  O   O9        1.0  0.05975  0.62500  0.79400  1.0000
  O   O10       1.0  0.19025  0.62500  0.20600  1.0000
  O   O11       1.0  0.06850  0.50000  0.29600  1.0000
  O   O12       1.0  0.18150  0.50000  0.70400  1.0000
  V   V7        1.0  0.00000  0.75000  0.00000  1.0000
  V   V8        1.0  0.12500  0.87500  0.50000  1.0000
  O   O13       1.0  0.05975  0.87500  0.79400  1.0000
  O   O14       1.0  0.19025  0.87500  0.20600  1.0000
  O   O15       1.0  0.06850  0.75000  0.29600  1.0000
  O   O16       1.0  0.18150  0.75000  0.70400  1.0000
  V   V9        1.0  0.25000  0.00000  0.00000  1.0000
  V   V10       1.0  0.37500  0.12500  0.50000  1.0000
  O   O17       1.0  0.30975  0.12500  0.79400  1.0000
  O   O18       1.0  0.44025  0.12500  0.20600  1.0000
  O   O19       1.0  0.31850  0.00000  0.29600  1.0000
  O   O20       1.0  0.43150  0.00000  0.70400  1.0000
  V   V11       1.0  0.25000  0.25000  0.00000  1.0000
  V   V12       1.0  0.37500  0.37500  0.50000  1.0000
  O   O21       1.0  0.30975  0.37500  0.79400  1.0000
  O   O22       1.0  0.44025  0.37500  0.20600  1.0000
  O   O23       1.0  0.31850  0.25000  0.29600  1.0000
  O   O24       1.0  0.43150  0.25000  0.70400  1.0000
  V   V13       1.0  0.25000  0.50000  0.00000  1.0000
  V   V14       1.0  0.37500  0.62500  0.50000  1.0000
  O   O25       1.0  0.30975  0.62500  0.79400  1.0000
  O   O26       1.0  0.44025  0.62500  0.20600  1.0000
  O   O27       1.0  0.31850  0.50000  0.29600  1.0000
  O   O28       1.0  0.43150  0.50000  0.70400  1.0000
  V   V15       1.0  0.25000  0.75000  0.00000  1.0000
  V   V16       1.0  0.37500  0.87500  0.50000  1.0000
  O   O29       1.0  0.30975  0.87500  0.79400  1.0000
  O   O30       1.0  0.44025  0.87500  0.20600  1.0000
  O   O31       1.0  0.31850  0.75000  0.29600  1.0000
  O   O32       1.0  0.43150  0.75000  0.70400  1.0000
  V   V17       1.0  0.50000  0.00000  0.00000  1.0000
  V   V18       1.0  0.62500  0.12500  0.50000  1.0000
  O   O33       1.0  0.55975  0.12500  0.79400  1.0000
  O   O34       1.0  0.69025  0.12500  0.20600  1.0000
  O   O35       1.0  0.56850  0.00000  0.29600  1.0000
  O   O36       1.0  0.68150  0.00000  0.70400  1.0000
  V   V19       1.0  0.50000  0.25000  0.00000  1.0000
  V   V20       1.0  0.62500  0.37500  0.50000  1.0000
  O   O37       1.0  0.55975  0.37500  0.79400  1.0000
  O   O38       1.0  0.69025  0.37500  0.20600  1.0000
  O   O39       1.0  0.56850  0.25000  0.29600  1.0000
  O   O40       1.0  0.68150  0.25000  0.70400  1.0000
  V   V21       1.0  0.50000  0.50000  0.00000  1.0000
  V   V22       1.0  0.62500  0.62500  0.50000  1.0000
  O   O41       1.0  0.55975  0.62500  0.79400  1.0000
  O   O42       1.0  0.69025  0.62500  0.20600  1.0000
  O   O43       1.0  0.56850  0.50000  0.29600  1.0000
  O   O44       1.0  0.68150  0.50000  0.70400  1.0000
  V   V23       1.0  0.50000  0.75000  0.00000  1.0000
  V   V24       1.0  0.62500  0.87500  0.50000  1.0000
  O   O45       1.0  0.55975  0.87500  0.79400  1.0000
  O   O46       1.0  0.69025  0.87500  0.20600  1.0000
  O   O47       1.0  0.56850  0.75000  0.29600  1.0000
  O   O48       1.0  0.68150  0.75000  0.70400  1.0000
  V   V25       1.0  0.75000  0.00000  0.00000  1.0000
  V   V26       1.0  0.87500  0.12500  0.50000  1.0000
  O   O49       1.0  0.80975  0.12500  0.79400  1.0000
  O   O50       1.0  0.94025  0.12500  0.20600  1.0000
  O   O51       1.0  0.81850  0.00000  0.29600  1.0000
  O   O52       1.0  0.93150  0.00000  0.70400  1.0000
  V   V27       1.0  0.75000  0.25000  0.00000  1.0000
  V   V28       1.0  0.87500  0.37500  0.50000  1.0000
  O   O53       1.0  0.80975  0.37500  0.79400  1.0000
  O   O54       1.0  0.94025  0.37500  0.20600  1.0000
  O   O55       1.0  0.81850  0.25000  0.29600  1.0000
  O   O56       1.0  0.93150  0.25000  0.70400  1.0000
  V   V29       1.0  0.75000  0.50000  0.00000  1.0000
  V   V30       1.0  0.87500  0.62500  0.50000  1.0000
  O   O57       1.0  0.80975  0.62500  0.79400  1.0000
  O   O58       1.0  0.94025  0.62500  0.20600  1.0000
  O   O59       1.0  0.81850  0.50000  0.29600  1.0000
  O   O60       1.0  0.93150  0.50000  0.70400  1.0000
  V   V31       1.0  0.75000  0.75000  0.00000  1.0000
  V   V32       1.0  0.87500  0.87500  0.50000  1.0000
  O   O61       1.0  0.80975  0.87500  0.79400  1.0000
  O   O62       1.0  0.94025  0.87500  0.20600  1.0000
  O   O63       1.0  0.81850  0.75000  0.29600  1.0000
  O   O64       1.0  0.93150  0.75000  0.70400  1.0000
